REMARK  11 active torsions:
REMARK  status: ('A' for Active; 'I' for Inactive)
REMARK    1  A    between atoms: C_2  and  O_1 
REMARK    2  A    between atoms: C_5  and  C_10 
REMARK    3  A    between atoms: C_6  and  O_21 
REMARK       I    between atoms: C_10  and  N_8 
REMARK    4  A    between atoms: C_11  and  C_24 
REMARK       I    between atoms: C_11  and  N_13 
REMARK    5  A    between atoms: C_31  and  N_13 
REMARK    6  A    between atoms: C_19  and  C_26 
REMARK    7  A    between atoms: C_23  and  C_30 
REMARK    8  A    between atoms: C_31  and  C_32 
REMARK    9  A    between atoms: C_32  and  O_33 
REMARK   10  A    between atoms: C_34  and  O_33 
REMARK   11  A    between atoms: C_34  and  N_35 
ROOT
HETATM    1  O           2      -5.377   1.498  -0.143  0.00  0.00    -0.360 OA
HETATM    2  H           2      -5.666   2.232   0.421  0.00  0.00     0.217 HD
ENDROOT
BRANCH   1   3
HETATM    3  C           2      -4.017   1.439  -0.180  0.00  0.00     0.075 A 
HETATM    4  C           2      -3.245   2.397   0.372  0.00  0.00    -0.020 A 
HETATM    5  C           2      -1.911   2.238   0.328  0.00  0.00     0.030 A 
HETATM    6  C           2      -1.321   1.188  -0.272  0.00  0.00     0.066 A 
HETATM    7  C           2      -2.084   0.218  -0.810  0.00  0.00     0.084 A 
HETATM    8  C           2      -3.417   0.375  -0.737  0.00  0.00     0.074 A 
BRANCH   4   9
HETATM    9  C           2      -3.871   3.615   1.045  0.00  0.00     0.013 C 
HETATM   10  C           2      -4.146   3.297   2.524  0.00  0.00     0.015 C 
HETATM   11  C           2      -3.065   4.920   0.915  0.00  0.00     0.015 C 
ENDBRANCH   4   9
BRANCH   6  12
HETATM   12  C           2       0.040   1.120  -0.295  0.00  0.00     0.257 C 
HETATM   13  N           2       0.743   1.379   0.854  0.00  0.00    -0.334 N 
HETATM   14  C           2       0.792   0.520   2.040  0.00  0.00     0.180 C 
HETATM   15  C           2       1.774   2.397   0.949  0.00  0.00     0.136 C 
HETATM   16  C           2       1.751   1.258   2.999  0.00  0.00     0.046 C 
HETATM   17  C           2       1.764   2.703   2.461  0.00  0.00     0.039 C 
HETATM   18  O           2       0.637   0.599  -1.209  0.00  0.00    -0.267 OA
BRANCH  14  19
HETATM   19  C           2       1.292  -0.897   1.745  0.00  0.00     0.240 C 
HETATM   20  O           2       1.539  -1.681   2.629  0.00  0.00    -0.271 OA
HETATM   21  N           2       1.432  -1.198   0.418  0.00  0.00    -0.357 N 
HETATM   22  H           2       1.148  -0.511  -0.285  0.00  0.00     0.162 HD
BRANCH  21  23
HETATM   23  C           2       1.841  -2.522  -0.055  0.00  0.00     0.149 C 
BRANCH  23  24
HETATM   24  C           2       2.281  -2.416  -1.515  0.00  0.00     0.189 C 
BRANCH  24  25
HETATM   25  O           2       2.486  -3.711  -2.022  0.00  0.00    -0.361 OA
BRANCH  25  26
HETATM   26  C           2       2.838  -3.702  -3.390  0.00  0.00     0.434 C 
BRANCH  26  27
HETATM   27  N           2       3.048  -5.083  -3.848  0.00  0.00     0.101 N 
HETATM   28  H           2       3.531  -5.095  -4.763  0.00  0.00     0.315 HD
HETATM   29  H           2       3.680  -5.578  -3.195  0.00  0.00     0.315 HD
ENDBRANCH  26  27
ENDBRANCH  25  26
ENDBRANCH  24  25
ENDBRANCH  23  24
ENDBRANCH  21  23
ENDBRANCH  14  19
BRANCH  17  30
HETATM   30  C           2       0.553   3.563   2.800  0.00  0.00    -0.052 A 
HETATM   31  C           2      -0.448   3.162   3.607  0.00  0.00     0.007 A 
HETATM   32  C           2      -1.509   3.946   3.853  0.00  0.00     0.001 A 
HETATM   33  C           2      -1.587   5.167   3.305  0.00  0.00     0.000 A 
HETATM   34  C           2      -0.592   5.596   2.517  0.00  0.00     0.001 A 
HETATM   35  C           2       0.462   4.801   2.276  0.00  0.00     0.007 A 
ENDBRANCH  17  30
ENDBRANCH   6  12
BRANCH   7  36
HETATM   36  O           2      -1.582  -0.932  -1.345  0.00  0.00    -0.360 OA
HETATM   37  H           2      -0.618  -1.004  -1.249  0.00  0.00     0.217 HD
ENDBRANCH   7  36
ENDBRANCH   1   3
TORSDOF 11
